<?xml version="1.0" encoding="UTF-8"?>

<!-- generated on 2022-12-18 20:30:17 by Eclipse SUMO netedit Version 1.15.0
<configuration xmlns:xsi="http://www.w3.org/2001/XMLSchema-instance" xsi:noNamespaceSchemaLocation="http://sumo.dlr.de/xsd/netconvertConfiguration.xsd">

    <input>
        <sumo-net-file value="D:\sumo\file\Intersection\hello.net.xml"/>
    </input>

    <output>
        <output-file value="D:\sumo\file\Intersection\hello.net.xml"/>
    </output>

    <processing>
        <geometry.min-radius.fix.railways value="false"/>
        <geometry.max-grade.fix value="false"/>
        <offset.disable-normalization value="true"/>
        <lefthand value="0"/>
    </processing>

    <junctions>
        <no-turnarounds value="true"/>
        <junctions.corner-detail value="5"/>
        <junctions.limit-turn-speed value="5.50"/>
        <rectangular-lane-cut value="0"/>
    </junctions>

    <pedestrian>
        <walkingareas value="0"/>
    </pedestrian>

</configuration>
-->

<net version="1.9" junctionCornerDetail="5" limitTurnSpeed="5.50" xmlns:xsi="http://www.w3.org/2001/XMLSchema-instance" xsi:noNamespaceSchemaLocation="http://sumo.dlr.de/xsd/net_file.xsd">

    <location netOffset="0.00,0.00" convBoundary="-150.00,-100.00,150.00,100.00" origBoundary="-10000000000.00,-10000000000.00,10000000000.00,10000000000.00" projParameter="!"/>

    <edge id=":J0_0" function="internal">
        <lane id=":J0_0_0" index="0" speed="13.89" length="20.80" shape="-4.80,10.40 -4.80,-10.40"/>
        <lane id=":J0_0_1" index="1" speed="13.89" length="20.80" shape="-1.60,10.40 -1.60,-10.40"/>
    </edge>
    <edge id=":J0_2" function="internal">
        <lane id=":J0_2_0" index="0" speed="13.89" length="20.80" shape="10.40,4.80 -10.40,4.80"/>
        <lane id=":J0_2_1" index="1" speed="13.89" length="20.80" shape="10.40,1.60 -10.40,1.60"/>
    </edge>
    <edge id=":J0_4" function="internal">
        <lane id=":J0_4_0" index="0" speed="13.89" length="20.80" shape="4.80,-10.40 4.80,10.40"/>
        <lane id=":J0_4_1" index="1" speed="13.89" length="20.80" shape="1.60,-10.40 1.60,10.40"/>
    </edge>
    <edge id=":J0_6" function="internal">
        <lane id=":J0_6_0" index="0" speed="13.89" length="20.80" shape="-10.40,-4.80 10.40,-4.80"/>
        <lane id=":J0_6_1" index="1" speed="13.89" length="20.80" shape="-10.40,-1.60 10.40,-1.60"/>
    </edge>

    <edge id="-E0" from="J0" to="J1" priority="-1">
        <lane id="-E0_0" index="0" speed="13.89" length="139.60" shape="10.40,-4.80 150.00,-4.80"/>
        <lane id="-E0_1" index="1" speed="13.89" length="139.60" shape="10.40,-1.60 150.00,-1.60"/>
    </edge>
    <edge id="-E1" from="J0" to="J5" priority="-1">
        <lane id="-E1_0" index="0" speed="13.89" length="89.60" shape="4.80,10.40 4.80,100.00"/>
        <lane id="-E1_1" index="1" speed="13.89" length="89.60" shape="1.60,10.40 1.60,100.00"/>
    </edge>
    <edge id="-E2" from="J0" to="J3" priority="-1">
        <lane id="-E2_0" index="0" speed="13.89" length="139.60" shape="-10.40,4.80 -150.00,4.80"/>
        <lane id="-E2_1" index="1" speed="13.89" length="139.60" shape="-10.40,1.60 -150.00,1.60"/>
    </edge>
    <edge id="-E3" from="J0" to="J4" priority="-1">
        <lane id="-E3_0" index="0" speed="13.89" length="89.60" shape="-4.80,-10.40 -4.80,-100.00"/>
        <lane id="-E3_1" index="1" speed="13.89" length="89.60" shape="-1.60,-10.40 -1.60,-100.00"/>
    </edge>
    <edge id="E0" from="J1" to="J0" priority="-1">
        <lane id="E0_0" index="0" speed="13.89" length="139.60" shape="150.00,4.80 10.40,4.80"/>
        <lane id="E0_1" index="1" speed="13.89" length="139.60" shape="150.00,1.60 10.40,1.60"/>
    </edge>
    <edge id="E1" from="J5" to="J0" priority="-1">
        <lane id="E1_0" index="0" speed="13.89" length="89.60" shape="-4.80,100.00 -4.80,10.40"/>
        <lane id="E1_1" index="1" speed="13.89" length="89.60" shape="-1.60,100.00 -1.60,10.40"/>
    </edge>
    <edge id="E2" from="J3" to="J0" priority="-1">
        <lane id="E2_0" index="0" speed="13.89" length="139.60" shape="-150.00,-4.80 -10.40,-4.80"/>
        <lane id="E2_1" index="1" speed="13.89" length="139.60" shape="-150.00,-1.60 -10.40,-1.60"/>
    </edge>
    <edge id="E3" from="J4" to="J0" priority="-1">
        <lane id="E3_0" index="0" speed="13.89" length="89.60" shape="4.80,-100.00 4.80,-10.40"/>
        <lane id="E3_1" index="1" speed="13.89" length="89.60" shape="1.60,-100.00 1.60,-10.40"/>
    </edge>

    <tlLogic id="J0" type="static" programID="0" offset="0">
        <phase duration="42" state="GGGrrrGGGrrr"/>
        <phase duration="3"  state="yyyrrryyyrrr"/>
        <phase duration="42" state="rrrGGGrrrGGG"/>
        <phase duration="3"  state="rrryyyrrryyy"/>
    </tlLogic>

    <junction id="J0" type="traffic_light" x="0.00" y="0.00" incLanes="E1_0 E1_1 E0_0 E0_1 E3_0 E3_1 E2_0 E2_1" intLanes=":J0_0_0 :J0_0_1 :J0_2_0 :J0_2_1 :J0_4_0 :J0_4_1 :J0_6_0 :J0_6_1" shape="-6.40,10.40 6.40,10.40 6.84,8.18 7.40,7.40 8.18,6.84 9.18,6.51 10.40,6.40 10.40,-6.40 8.18,-6.84 7.40,-7.40 6.84,-8.18 6.51,-9.18 6.40,-10.40 -6.40,-10.40 -6.84,-8.18 -7.40,-7.40 -8.18,-6.84 -9.18,-6.51 -10.40,-6.40 -10.40,6.40 -8.18,6.84 -7.40,7.40 -6.84,8.18 -6.51,9.18">
        <request index="0" response="00000000" foes="11001100" cont="0"/>
        <request index="1" response="00000000" foes="11001100" cont="0"/>
        <request index="2" response="00110011" foes="00110011" cont="0"/>
        <request index="3" response="00110011" foes="00110011" cont="0"/>
        <request index="4" response="00000000" foes="11001100" cont="0"/>
        <request index="5" response="00000000" foes="11001100" cont="0"/>
        <request index="6" response="00110011" foes="00110011" cont="0"/>
        <request index="7" response="00110011" foes="00110011" cont="0"/>
    </junction>
    <junction id="J1" type="dead_end" x="150.00" y="0.00" incLanes="-E0_0 -E0_1" intLanes="" shape="150.00,0.00 150.00,-6.40 150.00,0.00"/>
    <junction id="J3" type="dead_end" x="-150.00" y="0.00" incLanes="-E2_0 -E2_1" intLanes="" shape="-150.00,0.00 -150.00,6.40 -150.00,0.00"/>
    <junction id="J4" type="dead_end" x="0.00" y="-100.00" incLanes="-E3_0 -E3_1" intLanes="" shape="0.00,-100.00 -6.40,-100.00 0.00,-100.00"/>
    <junction id="J5" type="dead_end" x="0.00" y="100.00" incLanes="-E1_0 -E1_1" intLanes="" shape="0.00,100.00 6.40,100.00 0.00,100.00"/>

    <connection from="E0" to="-E2" fromLane="0" toLane="0" via=":J0_2_0" tl="J0" linkIndex="4" dir="s" state="o"/>
    <connection from="E0" to="-E2" fromLane="1" toLane="1" via=":J0_2_1" tl="J0" linkIndex="5" dir="s" state="o"/>
    <connection from="E1" to="-E3" fromLane="0" toLane="0" via=":J0_0_0" tl="J0" linkIndex="1" dir="s" state="O"/>
    <connection from="E1" to="-E3" fromLane="1" toLane="1" via=":J0_0_1" tl="J0" linkIndex="2" dir="s" state="O"/>
    <connection from="E2" to="-E0" fromLane="0" toLane="0" via=":J0_6_0" tl="J0" linkIndex="10" dir="s" state="o"/>
    <connection from="E2" to="-E0" fromLane="1" toLane="1" via=":J0_6_1" tl="J0" linkIndex="11" dir="s" state="o"/>
    <connection from="E3" to="-E1" fromLane="0" toLane="0" via=":J0_4_0" tl="J0" linkIndex="7" dir="s" state="O"/>
    <connection from="E3" to="-E1" fromLane="1" toLane="1" via=":J0_4_1" tl="J0" linkIndex="8" dir="s" state="O"/>

    <connection from=":J0_0" to="-E3" fromLane="0" toLane="0" dir="s" state="M"/>
    <connection from=":J0_0" to="-E3" fromLane="1" toLane="1" dir="s" state="M"/>
    <connection from=":J0_2" to="-E2" fromLane="0" toLane="0" dir="s" state="M"/>
    <connection from=":J0_2" to="-E2" fromLane="1" toLane="1" dir="s" state="M"/>
    <connection from=":J0_4" to="-E1" fromLane="0" toLane="0" dir="s" state="M"/>
    <connection from=":J0_4" to="-E1" fromLane="1" toLane="1" dir="s" state="M"/>
    <connection from=":J0_6" to="-E0" fromLane="0" toLane="0" dir="s" state="M"/>
    <connection from=":J0_6" to="-E0" fromLane="1" toLane="1" dir="s" state="M"/>

</net>
