<routes>

   <vType id="CarA" length="5" maxSpeed="22"/>

   <flow id="a11" color="1,1,0"  begin="0" end= "7200" vehsPerHour='1200' type="CarA" departLane="random" departSpeed="max">
     <route edges="E0 -E2"/>
    </flow>

	<flow id="a12" color="1,2,0"  begin="0" end= "7200" vehsPerHour='1450' type="CarA" departLane="random" departSpeed="max">
     <route edges="E1 -E3"/>
    </flow>

</routes>